<?xml version="1.0" encoding="utf-8"?>
<!DOCTYPE population SYSTEM "http://www.matsim.org/files/dtd/population_v6.dtd">

<population desc="Plans_Test1">

	<attributes>
		<attribute name="coordinateReferenceSystem" class="java.lang.String">Atlantis</attribute>
	</attributes>


<!-- ====================================================================== -->

	<person id="1">
		<attributes>
			<attribute name="age" class="java.lang.Integer">30</attribute>
		</attributes>
		<plan selected="yes">
			<activity type="home" link="91" facility="1" x="0.0" y="500.0" start_time="00:00:00" end_time="08:00:00" >
			</activity>
			<leg mode="car" dep_time="08:00:00" trav_time="00:19:59">
				<attributes>
					<attribute name="routingMode" class="java.lang.String">car</attribute>
				</attributes>
				<route type="links" start_link="91" end_link="172" trav_time="00:19:59" distance="10000.0" vehicleRefId="null">91 1 2 3 4 5 6 7 8 9 172</route>
			</leg>
			<activity type="work" link="172" facility="10" x="9000.0" y="500.0" start_time="08:00:00" end_time="16:00:00" >
			</activity>
			<leg mode="car" dep_time="16:00:00" trav_time="00:13:20">
				<attributes>
					<attribute name="routingMode" class="java.lang.String">car</attribute>
				</attributes>
				<route type="links" start_link="172" end_link="5" trav_time="00:13:20" distance="7000.0" vehicleRefId="null">172 54 53 52 51 50 109 5</route>
			</leg>
			<activity type="shopping" link="5" facility="37" x="4500.0" y="0.0" start_time="16:00:00" end_time="20:00:00" >
			</activity>
			<leg mode="car" dep_time="20:00:00" trav_time="00:13:19">
				<attributes>
					<attribute name="routingMode" class="java.lang.String">car</attribute>
				</attributes>
				<route type="links" start_link="5" end_link="91" trav_time="00:13:19" distance="7000.0" vehicleRefId="null">5 154 50 49 48 47 46 91</route>
			</leg>
			<activity type="home" link="91" facility="1" x="0.0" y="500.0" start_time="20:00:00" end_time="24:00:00" >
			</activity>
		</plan>

	</person>

<!-- ====================================================================== -->

	<person id="10">
		<attributes>
			<attribute name="age" class="java.lang.Integer">37</attribute>
		</attributes>
		<plan selected="yes">
			<activity type="home" link="92" facility="2" x="0.0" y="1500.0" start_time="00:00:00" max_dur="08:00:00" end_time="08:00:00" >
			</activity>
			<leg mode="car" dep_time="08:00:00" trav_time="00:22:13">
				<attributes>
					<attribute name="routingMode" class="java.lang.String">car</attribute>
				</attributes>
				<route type="links" start_link="92" end_link="172" trav_time="00:22:13" distance="11000.0" vehicleRefId="null">92 91 1 2 3 4 5 6 7 8 9 172</route>
			</leg>
			<activity type="work" link="172" facility="10" x="9000.0" y="500.0" start_time="08:00:00" max_dur="08:00:00" end_time="16:00:00" >
			</activity>
			<leg mode="car" dep_time="16:00:00" trav_time="00:22:13">
				<attributes>
					<attribute name="routingMode" class="java.lang.String">car</attribute>
				</attributes>
				<route type="links" start_link="172" end_link="23" trav_time="00:22:13" distance="11000.0" vehicleRefId="null">172 54 53 52 51 50 49 146 147 148 22 23</route>
			</leg>
			<activity type="shopping" link="23" facility="39" x="4500.0" y="4000.0" start_time="16:00:00" max_dur="04:00:00" end_time="20:00:00" >
			</activity>
			<leg mode="car" dep_time="20:00:00" trav_time="00:19:59">
				<attributes>
					<attribute name="routingMode" class="java.lang.String">car</attribute>
				</attributes>
				<route type="links" start_link="23" end_link="92" trav_time="00:19:59" distance="10000.0" vehicleRefId="null">23 158 68 67 66 65 64 95 94 93 92</route>
			</leg>
			<activity type="home" link="92" facility="2" x="0.0" y="1500.0" start_time="20:00:00" max_dur="04:00:00" end_time="24:00:00" >
			</activity>
		</plan>

	</person>

<!-- ====================================================================== -->

	<person id="100">
		<attributes>
			<attribute name="age" class="java.lang.Integer">56</attribute>
		</attributes>
		<plan selected="yes">
			<activity type="home" link="174" facility="12" x="9000.0" y="2500.0" start_time="00:00:00" max_dur="08:00:00" end_time="08:00:00" >
			</activity>
			<leg mode="car" dep_time="08:00:00" trav_time="00:24:26">
				<attributes>
					<attribute name="routingMode" class="java.lang.String">car</attribute>
				</attributes>
				<route type="links" start_link="174" end_link="91" trav_time="00:24:26" distance="12000.0" vehicleRefId="null">174 63 62 61 60 59 58 57 56 55 93 92 91</route>
			</leg>
			<activity type="work" link="91" facility="1" x="0.0" y="500.0" start_time="08:00:00" max_dur="08:00:00" end_time="16:00:00" >
			</activity>
			<leg mode="car" dep_time="16:00:00" trav_time="00:26:40">
				<attributes>
					<attribute name="routingMode" class="java.lang.String">car</attribute>
				</attributes>
				<route type="links" start_link="91" end_link="41" trav_time="00:26:40" distance="13000.0" vehicleRefId="null">91 1 136 137 11 12 147 148 149 150 151 152 40 41</route>
			</leg>
			<activity type="shopping" link="41" facility="41" x="4500.0" y="8000.0" start_time="16:00:00" max_dur="04:00:00" end_time="20:00:00" >
			</activity>
			<leg mode="car" dep_time="20:00:00" trav_time="00:22:13">
				<attributes>
					<attribute name="routingMode" class="java.lang.String">car</attribute>
				</attributes>
				<route type="links" start_link="41" end_link="174" trav_time="00:22:13" distance="11000.0" vehicleRefId="null">41 42 43 44 134 133 132 131 130 129 18 174</route>
			</leg>
			<activity type="home" link="174" facility="12" x="9000.0" y="2500.0" start_time="20:00:00" max_dur="04:00:00" end_time="24:00:00" >
			</activity>
		</plan>

	</person>

<!-- ====================================================================== -->

	<person id="101">
		<attributes>
			<attribute name="age" class="java.lang.Integer">74</attribute>
		</attributes>
		<plan selected="yes">
			<activity type="home" link="174" facility="12" x="9000.0" y="2500.0" start_time="00:00:00" max_dur="08:00:00" end_time="08:00:00" >
			</activity>
			<leg mode="car" dep_time="08:00:00" trav_time="00:22:13">
				<attributes>
					<attribute name="routingMode" class="java.lang.String">car</attribute>
				</attributes>
				<route type="links" start_link="174" end_link="92" trav_time="00:22:13" distance="11000.0" vehicleRefId="null">174 63 62 61 60 59 58 57 56 55 93 92</route>
			</leg>
			<activity type="work" link="92" facility="2" x="0.0" y="1500.0" start_time="08:00:00" max_dur="08:00:00" end_time="16:00:00" >
			</activity>
			<leg mode="car" dep_time="16:00:00" trav_time="00:15:33">
				<attributes>
					<attribute name="routingMode" class="java.lang.String">car</attribute>
				</attributes>
				<route type="links" start_link="92" end_link="50" trav_time="00:15:33" distance="8000.0" vehicleRefId="null">92 91 1 2 3 4 5 154 50</route>
			</leg>
			<activity type="leisure" link="50" facility="42" x="4500.0" y="1000.0" start_time="16:00:00" max_dur="04:00:00" end_time="20:00:00" >
			</activity>
			<leg mode="car" dep_time="20:00:00" trav_time="00:17:46">
				<attributes>
					<attribute name="routingMode" class="java.lang.String">car</attribute>
				</attributes>
				<route type="links" start_link="50" end_link="174" trav_time="00:17:46" distance="9000.0" vehicleRefId="null">50 109 5 6 7 8 9 172 173 174</route>
			</leg>
			<activity type="home" link="174" facility="12" x="9000.0" y="2500.0" start_time="20:00:00" max_dur="04:00:00" end_time="24:00:00" >
			</activity>
		</plan>

	</person>

<!-- ====================================================================== -->

	<person id="102">
		<attributes>
			<attribute name="age" class="java.lang.Integer">61</attribute>
		</attributes>
		<plan selected="yes">
			<activity type="home" link="174" facility="12" x="9000.0" y="2500.0" start_time="00:00:00" max_dur="08:00:00" end_time="08:00:00" >
			</activity>
			<leg mode="car" dep_time="08:00:00" trav_time="00:19:59">
				<attributes>
					<attribute name="routingMode" class="java.lang.String">car</attribute>
				</attributes>
				<route type="links" start_link="174" end_link="93" trav_time="00:19:59" distance="10000.0" vehicleRefId="null">174 63 62 61 60 59 58 57 56 55 93</route>
			</leg>
			<activity type="work" link="93" facility="3" x="0.0" y="2500.0" start_time="08:00:00" max_dur="08:00:00" end_time="16:00:00" >
			</activity>
			<leg mode="car" dep_time="16:00:00" trav_time="00:13:20">
				<attributes>
					<attribute name="routingMode" class="java.lang.String">car</attribute>
				</attributes>
				<route type="links" start_link="93" end_link="5" trav_time="00:13:20" distance="7000.0" vehicleRefId="null">93 10 11 101 100 3 4 5</route>
			</leg>
			<activity type="shopping" link="5" facility="37" x="4500.0" y="0.0" start_time="16:00:00" max_dur="04:00:00" end_time="20:00:00" >
			</activity>
			<leg mode="car" dep_time="20:00:00" trav_time="00:13:19">
				<attributes>
					<attribute name="routingMode" class="java.lang.String">car</attribute>
				</attributes>
				<route type="links" start_link="5" end_link="174" trav_time="00:13:19" distance="7000.0" vehicleRefId="null">5 154 155 15 16 17 18 174</route>
			</leg>
			<activity type="home" link="174" facility="12" x="9000.0" y="2500.0" start_time="20:00:00" max_dur="04:00:00" end_time="24:00:00" >
			</activity>
		</plan>

	</person>

<!-- ====================================================================== -->

	<person id="103">
		<attributes>
			<attribute name="age" class="java.lang.Integer">68</attribute>
		</attributes>
		<plan selected="yes">
			<activity type="home" link="174" facility="12" x="9000.0" y="2500.0" start_time="00:00:00" max_dur="08:00:00" end_time="08:00:00" >
			</activity>
			<leg mode="car" dep_time="08:00:00" trav_time="00:26:39">
				<attributes>
					<attribute name="routingMode" class="java.lang.String">car</attribute>
				</attributes>
				<route type="links" start_link="174" end_link="94" trav_time="00:26:39" distance="13000.0" vehicleRefId="null">174 63 62 61 60 59 58 57 56 139 140 64 95 94</route>
			</leg>
			<activity type="work" link="94" facility="4" x="0.0" y="3500.0" start_time="08:00:00" max_dur="08:00:00" end_time="16:00:00" >
			</activity>
			<leg mode="car" dep_time="16:00:00" trav_time="00:24:26">
				<attributes>
					<attribute name="routingMode" class="java.lang.String">car</attribute>
				</attributes>
				<route type="links" start_link="94" end_link="77" trav_time="00:24:26" distance="12000.0" vehicleRefId="null">94 93 10 11 12 147 148 149 150 31 32 160 77</route>
			</leg>
			<activity type="leisure" link="77" facility="45" x="4500.0" y="7000.0" start_time="16:00:00" max_dur="04:00:00" end_time="20:00:00" >
			</activity>
			<leg mode="car" dep_time="20:00:00" trav_time="00:22:13">
				<attributes>
					<attribute name="routingMode" class="java.lang.String">car</attribute>
				</attributes>
				<route type="links" start_link="77" end_link="174" trav_time="00:22:13" distance="11000.0" vehicleRefId="null">77 115 32 33 34 35 132 131 130 129 18 174</route>
			</leg>
			<activity type="home" link="174" facility="12" x="9000.0" y="2500.0" start_time="20:00:00" max_dur="04:00:00" end_time="24:00:00" >
			</activity>
		</plan>

	</person>

<!-- ====================================================================== -->

	<person id="104">
		<attributes>
			<attribute name="age" class="java.lang.Integer">93</attribute>
		</attributes>
		<plan selected="yes">
			<activity type="home" link="174" facility="12" x="9000.0" y="2500.0" start_time="00:00:00" max_dur="08:00:00" end_time="08:00:00" >
			</activity>
			<leg mode="car" dep_time="08:00:00" trav_time="00:24:26">
				<attributes>
					<attribute name="routingMode" class="java.lang.String">car</attribute>
				</attributes>
				<route type="links" start_link="174" end_link="95" trav_time="00:24:26" distance="12000.0" vehicleRefId="null">174 63 62 61 60 59 58 57 56 139 140 64 95</route>
			</leg>
			<activity type="work" link="95" facility="5" x="0.0" y="4500.0" start_time="08:00:00" max_dur="08:00:00" end_time="16:00:00" >
			</activity>
			<leg mode="car" dep_time="16:00:00" trav_time="00:17:46">
				<attributes>
					<attribute name="routingMode" class="java.lang.String">car</attribute>
				</attributes>
				<route type="links" start_link="95" end_link="41" trav_time="00:17:46" distance="9000.0" vehicleRefId="null">95 19 20 21 149 150 151 152 40 41</route>
			</leg>
			<activity type="shopping" link="41" facility="41" x="4500.0" y="8000.0" start_time="16:00:00" max_dur="04:00:00" end_time="20:00:00" >
			</activity>
			<leg mode="car" dep_time="20:00:00" trav_time="00:22:13">
				<attributes>
					<attribute name="routingMode" class="java.lang.String">car</attribute>
				</attributes>
				<route type="links" start_link="41" end_link="174" trav_time="00:22:13" distance="11000.0" vehicleRefId="null">41 42 43 44 134 133 132 131 130 129 18 174</route>
			</leg>
			<activity type="home" link="174" facility="12" x="9000.0" y="2500.0" start_time="20:00:00" max_dur="04:00:00" end_time="24:00:00" >
			</activity>
		</plan>

	</person>

<!-- ====================================================================== -->

	<person id="105">
		<attributes>
			<attribute name="age" class="java.lang.Integer">85</attribute>
		</attributes>
		<plan selected="yes">
			<activity type="home" link="174" facility="12" x="9000.0" y="2500.0" start_time="00:00:00" max_dur="08:00:00" end_time="08:00:00" >
			</activity>
			<leg mode="car" dep_time="08:00:00" trav_time="00:31:06">
				<attributes>
					<attribute name="routingMode" class="java.lang.String">car</attribute>
				</attributes>
				<route type="links" start_link="174" end_link="96" trav_time="00:31:06" distance="15000.0" vehicleRefId="null">174 63 62 61 60 59 58 57 56 139 140 141 142 73 97 96</route>
			</leg>
			<activity type="work" link="96" facility="6" x="0.0" y="5500.0" start_time="08:00:00" max_dur="08:00:00" end_time="16:00:00" >
			</activity>
			<leg mode="car" dep_time="16:00:00" trav_time="00:15:33">
				<attributes>
					<attribute name="routingMode" class="java.lang.String">car</attribute>
				</attributes>
				<route type="links" start_link="96" end_link="68" trav_time="00:15:33" distance="8000.0" vehicleRefId="null">96 95 19 20 21 22 23 158 68</route>
			</leg>
			<activity type="leisure" link="68" facility="44" x="4500.0" y="5000.0" start_time="16:00:00" max_dur="04:00:00" end_time="20:00:00" >
			</activity>
			<leg mode="car" dep_time="20:00:00" trav_time="00:17:46">
				<attributes>
					<attribute name="routingMode" class="java.lang.String">car</attribute>
				</attributes>
				<route type="links" start_link="68" end_link="174" trav_time="00:17:46" distance="9000.0" vehicleRefId="null">68 113 23 24 25 26 130 129 18 174</route>
			</leg>
			<activity type="home" link="174" facility="12" x="9000.0" y="2500.0" start_time="20:00:00" max_dur="04:00:00" end_time="24:00:00" >
			</activity>
		</plan>

	</person>

<!-- ====================================================================== -->

	<person id="106">
		<attributes>
			<attribute name="age" class="java.lang.Integer">61</attribute>
		</attributes>
		<plan selected="yes">
			<activity type="home" link="174" facility="12" x="9000.0" y="2500.0" start_time="00:00:00" max_dur="08:00:00" end_time="08:00:00" >
			</activity>
			<leg mode="car" dep_time="08:00:00" trav_time="00:28:53">
				<attributes>
					<attribute name="routingMode" class="java.lang.String">car</attribute>
				</attributes>
				<route type="links" start_link="174" end_link="97" trav_time="00:28:53" distance="14000.0" vehicleRefId="null">174 175 176 72 71 70 69 68 67 66 65 141 142 73 97</route>
			</leg>
			<activity type="work" link="97" facility="7" x="0.0" y="6500.0" start_time="08:00:00" max_dur="08:00:00" end_time="16:00:00" >
			</activity>
			<leg mode="car" dep_time="16:00:00" trav_time="00:26:40">
				<attributes>
					<attribute name="routingMode" class="java.lang.String">car</attribute>
				</attributes>
				<route type="links" start_link="97" end_link="50" trav_time="00:26:40" distance="13000.0" vehicleRefId="null">97 28 29 30 31 114 113 112 111 110 109 5 154 50</route>
			</leg>
			<activity type="leisure" link="50" facility="42" x="4500.0" y="1000.0" start_time="16:00:00" max_dur="04:00:00" end_time="20:00:00" >
			</activity>
			<leg mode="car" dep_time="20:00:00" trav_time="00:17:46">
				<attributes>
					<attribute name="routingMode" class="java.lang.String">car</attribute>
				</attributes>
				<route type="links" start_link="50" end_link="174" trav_time="00:17:46" distance="9000.0" vehicleRefId="null">50 109 5 6 7 8 9 172 173 174</route>
			</leg>
			<activity type="home" link="174" facility="12" x="9000.0" y="2500.0" start_time="20:00:00" max_dur="04:00:00" end_time="24:00:00" >
			</activity>
		</plan>

	</person>

<!-- ====================================================================== -->

	<person id="107">
		<attributes>
			<attribute name="age" class="java.lang.Integer">15</attribute>
		</attributes>
		<plan selected="yes">
			<activity type="home" link="174" facility="12" x="9000.0" y="2500.0" start_time="00:00:00" max_dur="08:00:00" end_time="08:00:00" >
			</activity>
			<leg mode="car" dep_time="08:00:00" trav_time="00:35:33">
				<attributes>
					<attribute name="routingMode" class="java.lang.String">car</attribute>
				</attributes>
				<route type="links" start_link="174" end_link="98" trav_time="00:35:33" distance="17000.0" vehicleRefId="null">174 63 62 61 60 59 58 57 56 139 140 141 142 143 144 82 99 98</route>
			</leg>
			<activity type="work" link="98" facility="8" x="0.0" y="7500.0" start_time="08:00:00" max_dur="08:00:00" end_time="16:00:00" >
			</activity>
			<leg mode="car" dep_time="16:00:00" trav_time="00:15:33">
				<attributes>
					<attribute name="routingMode" class="java.lang.String">car</attribute>
				</attributes>
				<route type="links" start_link="98" end_link="41" trav_time="00:15:33" distance="8000.0" vehicleRefId="null">98 97 28 29 30 151 152 40 41</route>
			</leg>
			<activity type="shopping" link="41" facility="41" x="4500.0" y="8000.0" start_time="16:00:00" max_dur="04:00:00" end_time="20:00:00" >
			</activity>
			<leg mode="car" dep_time="20:00:00" trav_time="00:22:13">
				<attributes>
					<attribute name="routingMode" class="java.lang.String">car</attribute>
				</attributes>
				<route type="links" start_link="41" end_link="174" trav_time="00:22:13" distance="11000.0" vehicleRefId="null">41 42 43 44 134 133 132 131 130 129 18 174</route>
			</leg>
			<activity type="home" link="174" facility="12" x="9000.0" y="2500.0" start_time="20:00:00" max_dur="04:00:00" end_time="24:00:00" >
			</activity>
		</plan>

	</person>

<!-- ====================================================================== -->

	<person id="108">
		<attributes>
			<attribute name="age" class="java.lang.Integer">71</attribute>
		</attributes>
		<plan selected="yes">
			<activity type="home" link="174" facility="12" x="9000.0" y="2500.0" start_time="00:00:00" max_dur="08:00:00" end_time="08:00:00" >
			</activity>
			<leg mode="car" dep_time="08:00:00" trav_time="00:33:19">
				<attributes>
					<attribute name="routingMode" class="java.lang.String">car</attribute>
				</attributes>
				<route type="links" start_link="174" end_link="99" trav_time="00:33:19" distance="16000.0" vehicleRefId="null">174 63 62 61 60 59 58 57 56 139 140 141 142 143 144 82 99</route>
			</leg>
			<activity type="work" link="99" facility="9" x="0.0" y="8500.0" start_time="08:00:00" max_dur="08:00:00" end_time="16:00:00" >
			</activity>
			<leg mode="car" dep_time="16:00:00" trav_time="00:17:46">
				<attributes>
					<attribute name="routingMode" class="java.lang.String">car</attribute>
				</attributes>
				<route type="links" start_link="99" end_link="77" trav_time="00:17:46" distance="9000.0" vehicleRefId="null">99 37 38 39 40 116 115 32 160 77</route>
			</leg>
			<activity type="leisure" link="77" facility="45" x="4500.0" y="7000.0" start_time="16:00:00" max_dur="04:00:00" end_time="20:00:00" >
			</activity>
			<leg mode="car" dep_time="20:00:00" trav_time="00:22:13">
				<attributes>
					<attribute name="routingMode" class="java.lang.String">car</attribute>
				</attributes>
				<route type="links" start_link="77" end_link="174" trav_time="00:22:13" distance="11000.0" vehicleRefId="null">77 115 32 33 34 35 132 131 130 129 18 174</route>
			</leg>
			<activity type="home" link="174" facility="12" x="9000.0" y="2500.0" start_time="20:00:00" max_dur="04:00:00" end_time="24:00:00" >
			</activity>
		</plan>

	</person>

<!-- ====================================================================== -->

	<person id="109">
		<attributes>
			<attribute name="age" class="java.lang.Integer">67</attribute>
		</attributes>
		<plan selected="yes">
			<activity type="home" link="175" facility="13" x="9000.0" y="3500.0" start_time="00:00:00" max_dur="08:00:00" end_time="08:00:00" >
			</activity>
			<leg mode="car" dep_time="08:00:00" trav_time="00:31:06">
				<attributes>
					<attribute name="routingMode" class="java.lang.String">car</attribute>
				</attributes>
				<route type="links" start_link="175" end_link="91" trav_time="00:31:06" distance="15000.0" vehicleRefId="null">175 176 72 71 70 69 68 67 66 65 64 95 94 93 92 91</route>
			</leg>
			<activity type="work" link="91" facility="1" x="0.0" y="500.0" start_time="08:00:00" max_dur="08:00:00" end_time="16:00:00" >
			</activity>
			<leg mode="car" dep_time="16:00:00" trav_time="00:22:13">
				<attributes>
					<attribute name="routingMode" class="java.lang.String">car</attribute>
				</attributes>
				<route type="links" start_link="91" end_link="68" trav_time="00:22:13" distance="11000.0" vehicleRefId="null">91 1 136 137 11 12 147 148 22 23 158 68</route>
			</leg>
			<activity type="leisure" link="68" facility="44" x="4500.0" y="5000.0" start_time="16:00:00" max_dur="04:00:00" end_time="20:00:00" >
			</activity>
			<leg mode="car" dep_time="20:00:00" trav_time="00:19:59">
				<attributes>
					<attribute name="routingMode" class="java.lang.String">car</attribute>
				</attributes>
				<route type="links" start_link="68" end_link="175" trav_time="00:19:59" distance="10000.0" vehicleRefId="null">68 113 23 24 25 26 130 129 18 174 175</route>
			</leg>
			<activity type="home" link="175" facility="13" x="9000.0" y="3500.0" start_time="20:00:00" max_dur="04:00:00" end_time="24:00:00" >
			</activity>
		</plan>

	</person>

<!-- ====================================================================== -->

	<person id="11">
		<attributes>
			<attribute name="age" class="java.lang.Integer">38</attribute>
		</attributes>
		<plan selected="yes">
			<activity type="home" link="92" facility="2" x="0.0" y="1500.0" start_time="00:00:00" max_dur="08:00:00" end_time="08:00:00" >
			</activity>
			<leg mode="car" dep_time="08:00:00" trav_time="00:24:26">
				<attributes>
					<attribute name="routingMode" class="java.lang.String">car</attribute>
				</attributes>
				<route type="links" start_link="92" end_link="173" trav_time="00:24:26" distance="12000.0" vehicleRefId="null">92 91 1 2 3 4 5 6 7 8 9 172 173</route>
			</leg>
			<activity type="work" link="173" facility="11" x="9000.0" y="1500.0" start_time="08:00:00" max_dur="08:00:00" end_time="16:00:00" >
			</activity>
			<leg mode="car" dep_time="16:00:00" trav_time="00:15:33">
				<attributes>
					<attribute name="routingMode" class="java.lang.String">car</attribute>
				</attributes>
				<route type="links" start_link="173" end_link="14" trav_time="00:15:33" distance="8000.0" vehicleRefId="null">173 174 63 62 61 60 59 111 14</route>
			</leg>
			<activity type="shopping" link="14" facility="38" x="4500.0" y="2000.0" start_time="16:00:00" max_dur="04:00:00" end_time="20:00:00" >
			</activity>
			<leg mode="car" dep_time="20:00:00" trav_time="00:15:33">
				<attributes>
					<attribute name="routingMode" class="java.lang.String">car</attribute>
				</attributes>
				<route type="links" start_link="14" end_link="92" trav_time="00:15:33" distance="8000.0" vehicleRefId="null">14 156 59 58 57 56 55 93 92</route>
			</leg>
			<activity type="home" link="92" facility="2" x="0.0" y="1500.0" start_time="20:00:00" max_dur="04:00:00" end_time="24:00:00" >
			</activity>
		</plan>

	</person>

<!-- ====================================================================== -->

	<person id="110">
		<attributes>
			<attribute name="age" class="java.lang.Integer">63</attribute>
		</attributes>
		<plan selected="yes">
			<activity type="home" link="175" facility="13" x="9000.0" y="3500.0" start_time="00:00:00" max_dur="08:00:00" end_time="08:00:00" >
			</activity>
			<leg mode="car" dep_time="08:00:00" trav_time="00:28:53">
				<attributes>
					<attribute name="routingMode" class="java.lang.String">car</attribute>
				</attributes>
				<route type="links" start_link="175" end_link="92" trav_time="00:28:53" distance="14000.0" vehicleRefId="null">175 176 72 71 70 69 68 67 66 65 64 95 94 93 92</route>
			</leg>
			<activity type="work" link="92" facility="2" x="0.0" y="1500.0" start_time="08:00:00" max_dur="08:00:00" end_time="16:00:00" >
			</activity>
			<leg mode="car" dep_time="16:00:00" trav_time="00:20:00">
				<attributes>
					<attribute name="routingMode" class="java.lang.String">car</attribute>
				</attributes>
				<route type="links" start_link="92" end_link="59" trav_time="00:20:00" distance="10000.0" vehicleRefId="null">92 91 1 136 137 11 12 13 14 156 59</route>
			</leg>
			<activity type="leisure" link="59" facility="43" x="4500.0" y="3000.0" start_time="16:00:00" max_dur="04:00:00" end_time="20:00:00" >
			</activity>
			<leg mode="car" dep_time="20:00:00" trav_time="00:15:33">
				<attributes>
					<attribute name="routingMode" class="java.lang.String">car</attribute>
				</attributes>
				<route type="links" start_link="59" end_link="175" trav_time="00:15:33" distance="8000.0" vehicleRefId="null">59 111 14 15 16 17 18 174 175</route>
			</leg>
			<activity type="home" link="175" facility="13" x="9000.0" y="3500.0" start_time="20:00:00" max_dur="04:00:00" end_time="24:00:00" >
			</activity>
		</plan>

	</person>

<!-- ====================================================================== -->

	<person id="111">
		<attributes>
			<attribute name="age" class="java.lang.Integer">47</attribute>
		</attributes>
		<plan selected="yes">
			<activity type="home" link="175" facility="13" x="9000.0" y="3500.0" start_time="00:00:00" max_dur="08:00:00" end_time="08:00:00" >
			</activity>
			<leg mode="car" dep_time="08:00:00" trav_time="00:26:39">
				<attributes>
					<attribute name="routingMode" class="java.lang.String">car</attribute>
				</attributes>
				<route type="links" start_link="175" end_link="93" trav_time="00:26:39" distance="13000.0" vehicleRefId="null">175 176 72 71 70 69 68 67 66 65 64 95 94 93</route>
			</leg>
			<activity type="work" link="93" facility="3" x="0.0" y="2500.0" start_time="08:00:00" max_dur="08:00:00" end_time="16:00:00" >
			</activity>
			<leg mode="car" dep_time="16:00:00" trav_time="00:13:20">
				<attributes>
					<attribute name="routingMode" class="java.lang.String">car</attribute>
				</attributes>
				<route type="links" start_link="93" end_link="5" trav_time="00:13:20" distance="7000.0" vehicleRefId="null">93 10 11 101 100 3 4 5</route>
			</leg>
			<activity type="shopping" link="5" facility="37" x="4500.0" y="0.0" start_time="16:00:00" max_dur="04:00:00" end_time="20:00:00" >
			</activity>
			<leg mode="car" dep_time="20:00:00" trav_time="00:15:33">
				<attributes>
					<attribute name="routingMode" class="java.lang.String">car</attribute>
				</attributes>
				<route type="links" start_link="5" end_link="175" trav_time="00:15:33" distance="8000.0" vehicleRefId="null">5 6 7 8 9 172 173 174 175</route>
			</leg>
			<activity type="home" link="175" facility="13" x="9000.0" y="3500.0" start_time="20:00:00" max_dur="04:00:00" end_time="24:00:00" >
			</activity>
		</plan>

	</person>

<!-- ====================================================================== -->

	<person id="112">
		<attributes>
			<attribute name="age" class="java.lang.Integer">30</attribute>
		</attributes>
		<plan selected="yes">
			<activity type="home" link="175" facility="13" x="9000.0" y="3500.0" start_time="00:00:00" max_dur="08:00:00" end_time="08:00:00" >
			</activity>
			<leg mode="car" dep_time="08:00:00" trav_time="00:24:26">
				<attributes>
					<attribute name="routingMode" class="java.lang.String">car</attribute>
				</attributes>
				<route type="links" start_link="175" end_link="94" trav_time="00:24:26" distance="12000.0" vehicleRefId="null">175 176 72 71 70 69 68 67 66 65 64 95 94</route>
			</leg>
			<activity type="work" link="94" facility="4" x="0.0" y="3500.0" start_time="08:00:00" max_dur="08:00:00" end_time="16:00:00" >
			</activity>
			<leg mode="car" dep_time="16:00:00" trav_time="00:20:00">
				<attributes>
					<attribute name="routingMode" class="java.lang.String">car</attribute>
				</attributes>
				<route type="links" start_link="94" end_link="50" trav_time="00:20:00" distance="10000.0" vehicleRefId="null">94 93 10 11 12 13 110 109 5 154 50</route>
			</leg>
			<activity type="leisure" link="50" facility="42" x="4500.0" y="1000.0" start_time="16:00:00" max_dur="04:00:00" end_time="20:00:00" >
			</activity>
			<leg mode="car" dep_time="20:00:00" trav_time="00:19:59">
				<attributes>
					<attribute name="routingMode" class="java.lang.String">car</attribute>
				</attributes>
				<route type="links" start_link="50" end_link="175" trav_time="00:19:59" distance="10000.0" vehicleRefId="null">50 49 146 13 14 15 16 17 18 174 175</route>
			</leg>
			<activity type="home" link="175" facility="13" x="9000.0" y="3500.0" start_time="20:00:00" max_dur="04:00:00" end_time="24:00:00" >
			</activity>
		</plan>
